100
Particle positions in xyz format
P 0.00000 0.00000 0.00000
P 0.00000 1.00000 0.00000
P 0.00000 2.00000 0.00000
P 0.00000 3.00000 0.00000
P 0.00000 4.00000 0.00000
P 0.00000 5.00000 0.00000
P 0.00000 6.00000 0.00000
P 0.00000 7.00000 0.00000
P 0.00000 8.00000 0.00000
P 0.00000 9.00000 0.00000
P 1.00000 0.00000 0.00000
P 1.00000 1.00000 0.00000
P 1.00000 2.00000 0.00000
P 1.00000 3.00000 0.00000
P 1.00000 4.00000 0.00000
P 1.00000 5.00000 0.00000
P 1.00000 6.00000 0.00000
P 1.00000 7.00000 0.00000
P 1.00000 8.00000 0.00000
P 1.00000 9.00000 0.00000
P 2.00000 0.00000 0.00000
P 2.00000 1.00000 0.00000
P 2.00000 2.00000 0.00000
P 2.00000 3.00000 0.00000
P 2.00000 4.00000 0.00000
P 2.00000 5.00000 0.00000
P 2.00000 6.00000 0.00000
P 2.00000 7.00000 0.00000
P 2.00000 8.00000 0.00000
P 2.00000 9.00000 0.00000
P 3.00000 0.00000 0.00000
P 3.00000 1.00000 0.00000
P 3.00000 2.00000 0.00000
P 3.00000 3.00000 0.00000
P 3.00000 4.00000 0.00000
P 3.00000 5.00000 0.00000
P 3.00000 6.00000 0.00000
P 3.00000 7.00000 0.00000
P 3.00000 8.00000 0.00000
P 3.00000 9.00000 0.00000
P 4.00000 0.00000 0.00000
P 4.00000 1.00000 0.00000
P 4.00000 2.00000 0.00000
P 4.00000 3.00000 0.00000
P 4.00000 4.00000 0.00000
P 4.00000 5.00000 0.00000
P 4.00000 6.00000 0.00000
P 4.00000 7.00000 0.00000
P 4.00000 8.00000 0.00000
P 4.00000 9.00000 0.00000
P 5.00000 0.00000 0.00000
P 5.00000 1.00000 0.00000
P 5.00000 2.00000 0.00000
P 5.00000 3.00000 0.00000
P 5.00000 4.00000 0.00000
P 5.00000 5.00000 0.00000
P 5.00000 6.00000 0.00000
P 5.00000 7.00000 0.00000
P 5.00000 8.00000 0.00000
P 5.00000 9.00000 0.00000
P 6.00000 0.00000 0.00000
P 6.00000 1.00000 0.00000
P 6.00000 2.00000 0.00000
P 6.00000 3.00000 0.00000
P 6.00000 4.00000 0.00000
P 6.00000 5.00000 0.00000
P 6.00000 6.00000 0.00000
P 6.00000 7.00000 0.00000
P 6.00000 8.00000 0.00000
P 6.00000 9.00000 0.00000
P 7.00000 0.00000 0.00000
P 7.00000 1.00000 0.00000
P 7.00000 2.00000 0.00000
P 7.00000 3.00000 0.00000
P 7.00000 4.00000 0.00000
P 7.00000 5.00000 0.00000
P 7.00000 6.00000 0.00000
P 7.00000 7.00000 0.00000
P 7.00000 8.00000 0.00000
P 7.00000 9.00000 0.00000
P 8.00000 0.00000 0.00000
P 8.00000 1.00000 0.00000
P 8.00000 2.00000 0.00000
P 8.00000 3.00000 0.00000
P 8.00000 4.00000 0.00000
P 8.00000 5.00000 0.00000
P 8.00000 6.00000 0.00000
P 8.00000 7.00000 0.00000
P 8.00000 8.00000 0.00000
P 8.00000 9.00000 0.00000
P 9.00000 0.00000 0.00000
P 9.00000 1.00000 0.00000
P 9.00000 2.00000 0.00000
P 9.00000 3.00000 0.00000
P 9.00000 4.00000 0.00000
P 9.00000 5.00000 0.00000
P 9.00000 6.00000 0.00000
P 9.00000 7.00000 0.00000
P 9.00000 8.00000 0.00000
P 9.00000 9.00000 0.00000
100
Particle positions in xyz format
P 0.00000 0.00000 0.00000
P 0.00000 1.00000 0.00000
P 0.00000 2.00000 0.00000
P 0.00000 3.00000 0.00000
P 0.00000 4.00000 0.00000
P 0.00000 5.00000 0.00000
P 9.97859 5.94586 0.00000
P 0.00000 7.00000 0.00000
P 0.00000 8.00000 0.00000
P 0.00000 9.00000 0.00000
P 1.04097 0.02419 0.00000
P 1.09749 1.00963 0.00000
P 1.00000 2.00000 0.00000
P 0.96034 2.99140 0.00000
P 1.00000 4.00000 0.00000
P 1.08050 4.92793 0.00000
P 1.00000 6.00000 0.00000
P 1.00000 7.00000 0.00000
P 1.01825 8.01806 0.00000
P 1.00507 9.04437 0.00000
P 2.00000 0.00000 0.00000
P 2.00000 1.00000 0.00000
P 2.03513 1.97893 0.00000
P 2.00000 3.00000 0.00000
P 2.00000 4.00000 0.00000
P 2.00000 5.00000 0.00000
P 2.01004 6.03176 0.00000
P 1.97441 7.03197 0.00000
P 2.00000 8.00000 0.00000
P 1.96712 8.95043 0.00000
P 3.00000 0.00000 0.00000
P 3.00000 1.00000 0.00000
P 2.99018 2.01056 0.00000
P 3.00000 3.00000 0.00000
P 3.00000 4.00000 0.00000
P 2.95668 5.00440 0.00000
P 3.00000 6.00000 0.00000
P 3.01305 7.01164 0.00000
P 3.00936 8.00635 0.00000
P 3.00000 9.00000 0.00000
P 4.00000 0.00000 0.00000
P 4.00000 1.00000 0.00000
P 4.00000 2.00000 0.00000
P 3.97582 2.96584 0.00000
P 3.95564 4.00982 0.00000
P 4.00000 5.00000 0.00000
P 4.00000 6.00000 0.00000
P 4.00000 7.00000 0.00000
P 4.00000 8.00000 0.00000
P 3.99665 8.95664 0.00000
P 4.97793 9.95783 0.00000
P 5.00000 1.00000 0.00000
P 4.97155 1.99460 0.00000
P 5.00000 3.00000 0.00000
P 5.00000 4.00000 0.00000
P 4.96430 4.96617 0.00000
P 5.00000 6.00000 0.00000
P 4.96996 7.04166 0.00000
P 5.02640 8.01296 0.00000
P 5.00000 9.00000 0.00000
P 6.01890 0.02022 0.00000
P 6.00000 1.00000 0.00000
P 6.01998 1.96174 0.00000
P 6.00000 3.00000 0.00000
P 6.00000 4.00000 0.00000
P 6.00000 5.00000 0.00000
P 6.03292 5.95150 0.00000
P 6.00000 7.00000 0.00000
P 6.00000 8.00000 0.00000
P 6.00000 9.00000 0.00000
P 7.03815 9.99397 0.00000
P 7.03007 1.02065 0.00000
P 6.97194 2.01347 0.00000
P 7.00000 3.00000 0.00000
P 6.97531 3.96351 0.00000
P 7.00000 5.00000 0.00000
P 6.98443 6.03573 0.00000
P 6.98216 6.99604 0.00000
P 7.00000 8.00000 0.00000
P 7.02844 9.00842 0.00000
P 8.00000 0.00000 0.00000
P 8.00000 1.00000 0.00000
P 8.00000 2.00000 0.00000
P 8.00505 2.99524 0.00000
P 8.02769 4.02839 0.00000
P 8.00000 5.00000 0.00000
P 8.00000 6.00000 0.00000
P 8.00000 7.00000 0.00000
P 8.00539 8.00880 0.00000
P 8.00461 9.04178 0.00000
P 9.00000 0.00000 0.00000
P 9.00000 1.00000 0.00000
P 8.96940 1.95113 0.00000
P 9.00439 2.96392 0.00000
P 8.94132 4.07642 0.00000
P 9.00000 5.00000 0.00000
P 9.00000 6.00000 0.00000
P 9.00000 7.00000 0.00000
P 9.01718 8.01762 0.00000
P 9.00000 9.00000 0.00000
100
Particle positions in xyz format
P 0.04383 9.97354 0.00000
P 9.94259 0.99098 0.00000
P 0.01635 2.01254 0.00000
P 9.97661 3.01647 0.00000
P 9.96592 4.04453 0.00000
P 9.99306 4.99036 0.00000
P 0.00900 5.94058 0.00000
P 0.00000 7.00000 0.00000
P 9.98148 8.07357 0.00000
P 0.02264 8.98294 0.00000
P 1.00262 9.99514 0.00000
P 1.07264 1.00939 0.00000
P 1.03467 1.93612 0.00000
P 0.91488 2.94554 0.00000
P 0.98173 3.96041 0.00000
P 1.05681 4.94171 0.00000
P 1.03212 6.00274 0.00000
P 1.00060 7.03313 0.00000
P 0.99796 8.04382 0.00000
P 1.00507 9.04437 0.00000
P 1.98725 0.04397 0.00000
P 2.03817 0.95018 0.00000
P 1.99060 1.98857 0.00000
P 2.02892 3.02996 0.00000
P 2.00000 4.00000 0.00000
P 2.00000 5.00000 0.00000
P 2.01004 6.03176 0.00000
P 1.95645 7.01904 0.00000
P 1.95228 7.96920 0.00000
P 1.96712 8.95043 0.00000
P 3.00000 0.00000 0.00000
P 3.00000 1.00000 0.00000
P 3.02149 2.05036 0.00000
P 2.94547 2.96692 0.00000
P 3.03562 3.95294 0.00000
P 2.94182 5.01581 0.00000
P 3.00000 6.00000 0.00000
P 3.01305 7.01164 0.00000
P 3.00936 8.00635 0.00000
P 3.00000 9.00000 0.00000
P 3.99459 0.02433 0.00000
P 3.98891 1.04352 0.00000
P 4.00000 2.00000 0.00000
P 3.93058 2.98204 0.00000
P 3.97283 4.02799 0.00000
P 3.99942 5.02694 0.00000
P 4.00762 6.02390 0.00000
P 4.01779 6.96776 0.00000
P 3.98251 7.97292 0.00000
P 3.99665 8.95664 0.00000
P 4.91318 9.95125 0.00000
P 5.04536 0.93805 0.00000
P 4.97155 1.99460 0.00000
P 4.97046 2.95890 0.00000
P 5.00000 4.00000 0.00000
P 4.89462 4.95809 0.00000
P 4.98836 6.00096 0.00000
P 4.96996 7.04166 0.00000
P 5.02640 8.01296 0.00000
P 5.00000 9.00000 0.00000
P 6.01890 0.02022 0.00000
P 6.05906 1.05729 0.00000
P 6.01998 1.96174 0.00000
P 6.00000 3.00000 0.00000
P 6.00000 4.00000 0.00000
P 5.99465 4.96503 0.00000
P 6.02709 5.95341 0.00000
P 6.00564 7.01296 0.00000
P 6.01026 7.98559 0.00000
P 6.04743 8.97590 0.00000
P 7.03815 9.99397 0.00000
P 7.02849 1.03276 0.00000
P 6.96992 2.03452 0.00000
P 7.01530 2.96659 0.00000
P 6.97531 3.96351 0.00000
P 7.00000 5.00000 0.00000
P 7.05102 5.99278 0.00000
P 6.93722 6.99382 0.00000
P 7.00000 8.00000 0.00000
P 6.96098 8.99863 0.00000
P 8.04353 0.02720 0.00000
P 8.00000 1.00000 0.00000
P 7.95999 1.99413 0.00000
P 8.00505 2.99524 0.00000
P 8.02769 4.02839 0.00000
P 8.00000 5.00000 0.00000
P 8.00000 6.00000 0.00000
P 8.00000 7.00000 0.00000
P 8.00539 8.00880 0.00000
P 7.96036 9.09047 0.00000
P 9.00000 0.00000 0.00000
P 9.00000 1.00000 0.00000
P 8.97829 1.94526 0.00000
P 9.02388 2.95910 0.00000
P 9.00458 4.05659 0.00000
P 8.95831 4.99216 0.00000
P 9.00000 6.00000 0.00000
P 9.03719 7.02582 0.00000
P 9.02647 8.08504 0.00000
P 8.99880 8.96293 0.00000
100
Particle positions in xyz format
P 0.04383 9.97354 0.00000
P 9.94036 1.01184 0.00000
P 9.98666 2.01071 0.00000
P 9.97661 3.01647 0.00000
P 9.96592 4.04453 0.00000
P 9.97997 4.98666 0.00000
P 0.00900 5.94058 0.00000
P 0.00000 7.00000 0.00000
P 9.98148 8.07357 0.00000
P 0.02264 8.98294 0.00000
P 1.00262 9.99514 0.00000
P 1.03713 0.98854 0.00000
P 1.03467 1.93612 0.00000
P 0.88918 2.90789 0.00000
P 0.96054 3.92547 0.00000
P 1.05681 4.94171 0.00000
P 0.99015 6.04999 0.00000
P 1.00060 7.03313 0.00000
P 0.99796 8.04382 0.00000
P 1.01241 9.00808 0.00000
P 1.98725 0.04397 0.00000
P 2.03817 0.95018 0.00000
P 1.99060 1.98857 0.00000
P 2.02892 3.02996 0.00000
P 2.00000 4.00000 0.00000
P 2.00000 5.00000 0.00000
P 2.01004 6.03176 0.00000
P 1.95645 7.01904 0.00000
P 1.96989 7.98207 0.00000
P 2.03944 8.93569 0.00000
P 3.00000 0.00000 0.00000
P 3.00000 1.00000 0.00000
P 3.04913 2.02555 0.00000
P 2.94547 2.96692 0.00000
P 3.03562 3.95294 0.00000
P 2.94182 5.01581 0.00000
P 3.00000 6.00000 0.00000
P 3.00332 7.04656 0.00000
P 3.02535 8.02939 0.00000
P 3.04299 9.01629 0.00000
P 3.95643 0.06463 0.00000
P 3.97350 1.03177 0.00000
P 3.98577 1.98895 0.00000
P 3.97514 2.95200 0.00000
P 3.96502 3.97453 0.00000
P 3.99942 5.02694 0.00000
P 4.00762 6.02390 0.00000
P 4.01779 6.96776 0.00000
P 3.98251 7.97292 0.00000
P 3.96678 8.99151 0.00000
P 4.92012 9.99082 0.00000
P 5.09317 0.94480 0.00000
P 4.98937 1.91279 0.00000
P 4.97046 2.95890 0.00000
P 5.00000 4.00000 0.00000
P 4.89462 4.95809 0.00000
P 4.99373 5.97503 0.00000
P 4.99710 7.01053 0.00000
P 5.05142 7.97518 0.00000
P 5.03853 9.04601 0.00000
P 5.99678 9.97923 0.00000
P 6.05906 1.05729 0.00000
P 5.97191 2.03989 0.00000
P 6.00000 3.00000 0.00000
P 6.00000 4.00000 0.00000
P 5.99465 4.96503 0.00000
P 6.02709 5.95341 0.00000
P 5.98710 7.02380 0.00000
P 6.03509 8.02201 0.00000
P 6.04743 8.97590 0.00000
P 7.03815 9.99397 0.00000
P 7.02849 1.03276 0.00000
P 6.96992 2.03452 0.00000
P 7.01530 2.96659 0.00000
P 6.97531 3.96351 0.00000
P 7.00349 5.01641 0.00000
P 7.05102 5.99278 0.00000
P 6.90242 7.02646 0.00000
P 7.00000 8.00000 0.00000
P 6.96117 9.01422 0.00000
P 8.04353 0.02720 0.00000
P 8.04078 0.96979 0.00000
P 7.95999 1.99413 0.00000
P 7.96006 2.95263 0.00000
P 8.02769 4.02839 0.00000
P 7.96610 4.99168 0.00000
P 8.00000 6.00000 0.00000
P 7.95314 7.03033 0.00000
P 7.98984 7.98521 0.00000
P 7.96036 9.09047 0.00000
P 9.01876 9.96217 0.00000
P 9.00000 1.00000 0.00000
P 8.97829 1.94526 0.00000
P 9.04815 2.99398 0.00000
P 9.00458 4.05659 0.00000
P 8.99790 5.01302 0.00000
P 9.00000 6.00000 0.00000
P 9.03719 7.02582 0.00000
P 9.02647 8.08504 0.00000
P 8.98299 8.95666 0.00000
100
Particle positions in xyz format
P 0.04383 9.97354 0.00000
P 9.94036 1.01184 0.00000
P 9.98666 2.01071 0.00000
P 9.97661 3.01647 0.00000
P 9.96592 4.04453 0.00000
P 9.97997 4.98666 0.00000
P 0.02354 5.92331 0.00000
P 0.00000 7.00000 0.00000
P 9.99935 8.03051 0.00000
P 0.02264 8.98294 0.00000
P 1.00262 9.99514 0.00000
P 1.04943 0.95937 0.00000
P 1.03467 1.93612 0.00000
P 0.88918 2.90789 0.00000
P 0.98875 3.90195 0.00000
P 1.05681 4.94171 0.00000
P 0.99015 6.04999 0.00000
P 1.00060 7.03313 0.00000
P 0.99796 8.04382 0.00000
P 1.01241 9.00808 0.00000
P 1.98479 0.00499 0.00000
P 2.05238 0.96957 0.00000
P 2.03309 1.99996 0.00000
P 2.02892 3.02996 0.00000
P 1.98992 4.00992 0.00000
P 2.01563 5.04732 0.00000
P 2.01004 6.03176 0.00000
P 1.95645 7.01904 0.00000
P 1.96989 7.98207 0.00000
P 2.03944 8.93569 0.00000
P 3.03144 0.04366 0.00000
P 3.00000 1.00000 0.00000
P 3.04913 2.02555 0.00000
P 2.94547 2.96692 0.00000
P 3.03562 3.95294 0.00000
P 2.94182 5.01581 0.00000
P 3.00000 6.00000 0.00000
P 3.00332 7.04656 0.00000
P 3.02535 8.02939 0.00000
P 3.04299 9.01629 0.00000
P 3.99348 0.05915 0.00000
P 3.97350 1.03177 0.00000
P 3.98577 1.98895 0.00000
P 3.97514 2.95200 0.00000
P 3.97509 3.97881 0.00000
P 3.99942 5.02694 0.00000
P 4.00762 6.02390 0.00000
P 3.96720 6.97885 0.00000
P 3.98251 7.97292 0.00000
P 4.05231 8.93075 0.00000
P 4.92012 9.99082 0.00000
P 5.08308 0.93349 0.00000
P 4.98937 1.91279 0.00000
P 4.97046 2.95890 0.00000
P 5.00409 3.95359 0.00000
P 4.92926 4.92711 0.00000
P 5.03092 5.97822 0.00000
P 4.97173 7.01769 0.00000
P 5.03640 8.00484 0.00000
P 5.03853 9.04601 0.00000
P 5.98304 9.93932 0.00000
P 6.05906 1.05729 0.00000
P 5.97191 2.03989 0.00000
P 6.00000 3.00000 0.00000
P 6.02853 3.97204 0.00000
P 5.99465 4.96503 0.00000
P 6.02709 5.95341 0.00000
P 5.95177 6.98451 0.00000
P 6.00212 7.97362 0.00000
P 6.00565 8.98633 0.00000
P 7.03815 9.99397 0.00000
P 7.02849 1.03276 0.00000
P 6.94782 2.02544 0.00000
P 7.01530 2.96659 0.00000
P 6.99149 3.95379 0.00000
P 7.00349 5.01641 0.00000
P 7.05102 5.99278 0.00000
P 6.90242 7.02646 0.00000
P 7.00000 8.00000 0.00000
P 6.96117 9.01422 0.00000
P 8.04353 0.02720 0.00000
P 8.04078 0.96979 0.00000
P 7.95999 1.99413 0.00000
P 7.97769 2.98837 0.00000
P 8.03264 4.04826 0.00000
P 7.96610 4.99168 0.00000
P 7.98737 5.96333 0.00000
P 7.97020 7.03217 0.00000
P 7.98984 7.98521 0.00000
P 7.95127 9.04359 0.00000
P 9.02430 9.96159 0.00000
P 9.00000 1.00000 0.00000
P 8.97546 1.97060 0.00000
P 9.04815 2.99398 0.00000
P 9.00458 4.05659 0.00000
P 8.99790 5.01302 0.00000
P 9.04420 6.03824 0.00000
P 8.97839 7.04254 0.00000
P 9.02647 8.08504 0.00000
P 8.98299 8.95666 0.00000
100
Particle positions in xyz format
P 0.04383 9.97354 0.00000
P 9.96494 1.01841 0.00000
P 9.98666 2.01071 0.00000
P 9.97176 3.03454 0.00000
P 9.96592 4.04453 0.00000
P 9.97125 4.99048 0.00000
P 0.00343 5.98006 0.00000
P 0.00000 7.00000 0.00000
P 9.99935 8.03051 0.00000
P 9.99427 8.97677 0.00000
P 1.04921 0.02685 0.00000
P 1.05383 0.99244 0.00000
P 1.03467 1.93612 0.00000
P 0.92001 2.88446 0.00000
P 0.98875 3.90195 0.00000
P 1.05681 4.94171 0.00000
P 0.95651 6.07959 0.00000
P 1.00060 7.03313 0.00000
P 0.99796 8.04382 0.00000
P 1.01241 9.00808 0.00000
P 1.98479 0.00499 0.00000
P 2.05238 0.96957 0.00000
P 2.03309 1.99996 0.00000
P 2.03375 3.01724 0.00000
P 1.98992 4.00992 0.00000
P 2.01563 5.04732 0.00000
P 2.01004 6.03176 0.00000
P 1.95861 6.97728 0.00000
P 2.00554 7.96751 0.00000
P 2.08733 8.91795 0.00000
P 3.03144 0.04366 0.00000
P 3.00000 1.00000 0.00000
P 3.04913 2.02555 0.00000
P 2.99396 2.97529 0.00000
P 3.03562 3.95294 0.00000
P 2.94182 5.01581 0.00000
P 3.00000 6.00000 0.00000
P 2.99184 7.03403 0.00000
P 3.02535 8.02939 0.00000
P 3.04299 9.01629 0.00000
P 3.99348 0.05915 0.00000
P 3.97350 1.03177 0.00000
P 3.98577 1.98895 0.00000
P 3.97514 2.95200 0.00000
P 3.99806 3.93707 0.00000
P 3.96375 5.02760 0.00000
P 4.00762 6.02390 0.00000
P 3.96720 6.97885 0.00000
P 3.98251 7.97292 0.00000
P 4.09132 8.95929 0.00000
P 4.92012 9.99082 0.00000
P 5.08308 0.93349 0.00000
P 4.99358 1.95096 0.00000
P 4.97046 2.95890 0.00000
P 4.96498 3.93980 0.00000
P 4.94397 4.95131 0.00000
P 5.02341 6.01233 0.00000
P 4.97173 7.01769 0.00000
P 5.03640 8.00484 0.00000
P 5.06007 9.07006 0.00000
P 6.01086 9.97955 0.00000
P 6.05906 1.05729 0.00000
P 5.97191 2.03989 0.00000
P 6.00000 3.00000 0.00000
P 6.02853 3.97204 0.00000
P 5.99465 4.96503 0.00000
P 5.96446 6.01783 0.00000
P 5.93135 6.98182 0.00000
P 6.00212 7.97362 0.00000
P 6.00565 8.98633 0.00000
P 7.01101 0.00367 0.00000
P 7.02207 0.98554 0.00000
P 6.94782 2.02544 0.00000
P 7.01530 2.96659 0.00000
P 6.99149 3.95379 0.00000
P 7.00349 5.01641 0.00000
P 7.05102 5.99278 0.00000
P 6.90242 7.02646 0.00000
P 7.00000 8.00000 0.00000
P 6.96301 9.00177 0.00000
P 8.04353 0.02720 0.00000
P 7.99814 1.01665 0.00000
P 7.95999 1.99413 0.00000
P 7.97769 2.98837 0.00000
P 8.03264 4.04826 0.00000
P 7.96610 4.99168 0.00000
P 8.03479 5.91870 0.00000
P 7.97020 7.03217 0.00000
P 7.97855 8.01757 0.00000
P 7.98845 9.07251 0.00000
P 8.98022 0.00426 0.00000
P 8.94826 1.04876 0.00000
P 8.98350 1.99455 0.00000
P 9.04016 3.02414 0.00000
P 9.04576 4.02371 0.00000
P 8.99790 5.01302 0.00000
P 9.04420 6.03824 0.00000
P 8.97839 7.04254 0.00000
P 9.02647 8.08504 0.00000
P 8.98299 8.95666 0.00000
100
Particle positions in xyz format
P 0.05605 9.99332 0.00000
P 9.96494 1.01841 0.00000
P 9.98666 2.01071 0.00000
P 9.97176 3.03454 0.00000
P 9.98214 4.01665 0.00000
P 9.95795 4.99071 0.00000
P 9.99353 6.01685 0.00000
P 0.00000 7.00000 0.00000
P 9.99935 8.03051 0.00000
P 0.01898 8.99302 0.00000
P 1.04921 0.02685 0.00000
P 1.05383 0.99244 0.00000
P 1.03606 1.93997 0.00000
P 0.93517 2.91589 0.00000
P 0.98289 3.89509 0.00000
P 1.05681 4.94171 0.00000
P 0.93880 6.03961 0.00000
P 1.00060 7.03313 0.00000
P 1.00855 8.03164 0.00000
P 1.01241 9.00808 0.00000
P 1.98479 0.00499 0.00000
P 2.00777 0.95005 0.00000
P 2.00168 1.95409 0.00000
P 2.03375 3.01724 0.00000
P 1.98992 4.00992 0.00000
P 2.01563 5.04732 0.00000
P 1.97629 6.05108 0.00000
P 1.93367 6.97455 0.00000
P 2.00554 7.96751 0.00000
P 2.04363 8.96604 0.00000
P 3.03453 0.02876 0.00000
P 3.00000 1.00000 0.00000
P 3.05622 2.03587 0.00000
P 2.99396 2.97529 0.00000
P 3.03471 4.00268 0.00000
P 2.94182 5.01581 0.00000
P 3.00000 6.00000 0.00000
P 2.99264 7.02494 0.00000
P 3.02535 8.02939 0.00000
P 3.04299 9.01629 0.00000
P 3.99348 0.05915 0.00000
P 3.97350 1.03177 0.00000
P 3.98577 1.98895 0.00000
P 3.99567 2.99665 0.00000
P 4.01361 3.97057 0.00000
P 3.96375 5.02760 0.00000
P 4.00762 6.02390 0.00000
P 3.96720 6.97885 0.00000
P 4.02971 7.94645 0.00000
P 4.05676 8.96089 0.00000
P 4.96351 9.99243 0.00000
P 5.08308 0.93349 0.00000
P 4.99694 1.90339 0.00000
P 5.01031 2.92648 0.00000
P 4.96498 3.93980 0.00000
P 4.94397 4.95131 0.00000
P 5.00854 6.04972 0.00000
P 4.97173 7.01769 0.00000
P 5.03640 8.00484 0.00000
P 5.06007 9.07006 0.00000
P 6.01086 9.97955 0.00000
P 6.05906 1.05729 0.00000
P 5.96165 2.07714 0.00000
P 6.00000 3.00000 0.00000
P 6.02853 3.97204 0.00000
P 5.99465 4.96503 0.00000
P 5.96446 6.01783 0.00000
P 5.93135 6.98182 0.00000
P 6.01033 7.98778 0.00000
P 5.97769 8.99070 0.00000
P 7.02402 9.97210 0.00000
P 7.04110 0.95504 0.00000
P 6.94782 2.02544 0.00000
P 7.01530 2.96659 0.00000
P 6.99149 3.95379 0.00000
P 7.00349 5.01641 0.00000
P 7.00621 6.02728 0.00000
P 6.92498 7.02900 0.00000
P 6.96928 8.01514 0.00000
P 6.96751 9.01028 0.00000
P 7.99587 0.02997 0.00000
P 7.97843 1.00210 0.00000
P 7.96536 1.94397 0.00000
P 7.97769 2.98837 0.00000
P 8.03264 4.04826 0.00000
P 7.96610 4.99168 0.00000
P 8.03479 5.91870 0.00000
P 7.94700 7.02306 0.00000
P 7.97855 8.01757 0.00000
P 7.98845 9.07251 0.00000
P 8.98022 0.00426 0.00000
P 8.94826 1.04876 0.00000
P 8.98350 1.99455 0.00000
P 9.00733 2.99921 0.00000
P 9.04576 4.02371 0.00000
P 8.99790 5.01302 0.00000
P 9.01708 6.08959 0.00000
P 8.97839 7.04254 0.00000
P 9.03921 8.05417 0.00000
P 8.96457 8.99312 0.00000
100
Particle positions in xyz format
P 0.05651 9.98051 0.00000
P 9.99041 0.98786 0.00000
P 0.01367 1.97246 0.00000
P 9.93744 2.99212 0.00000
P 9.98214 4.01665 0.00000
P 9.95795 4.99071 0.00000
P 9.99353 6.01685 0.00000
P 0.00000 7.00000 0.00000
P 0.01541 8.07434 0.00000
P 0.01898 8.99302 0.00000
P 1.04921 0.02685 0.00000
P 1.05383 0.99244 0.00000
P 1.00518 1.93425 0.00000
P 0.90873 2.93735 0.00000
P 0.99819 3.91209 0.00000
P 1.05681 4.94171 0.00000
P 0.93880 6.03961 0.00000
P 1.03658 7.04749 0.00000
P 1.00855 8.03164 0.00000
P 1.01241 9.00808 0.00000
P 2.00675 9.95594 0.00000
P 2.01157 0.96244 0.00000
P 2.00168 1.95409 0.00000
P 2.03375 3.01724 0.00000
P 1.95307 4.00970 0.00000
P 1.97670 5.00555 0.00000
P 1.97629 6.05108 0.00000
P 1.94990 6.98117 0.00000
P 2.00554 7.96751 0.00000
P 2.04363 8.96604 0.00000
P 3.03562 0.02261 0.00000
P 2.96758 1.03140 0.00000
P 3.03281 2.01041 0.00000
P 2.99396 2.97529 0.00000
P 3.00150 3.99012 0.00000
P 2.94182 5.01581 0.00000
P 3.02160 5.99253 0.00000
P 2.99264 7.02494 0.00000
P 3.02535 8.02939 0.00000
P 3.04299 9.01629 0.00000
P 4.00340 0.00179 0.00000
P 3.97350 1.03177 0.00000
P 3.98577 1.98895 0.00000
P 3.96004 2.97436 0.00000
P 4.01361 3.97057 0.00000
P 3.92607 4.98232 0.00000
P 4.05117 6.05121 0.00000
P 3.96012 6.99798 0.00000
P 4.05772 7.93446 0.00000
P 4.03343 8.95786 0.00000
P 4.96351 9.99243 0.00000
P 5.08308 0.93349 0.00000
P 4.99694 1.90339 0.00000
P 5.01031 2.92648 0.00000
P 4.96498 3.93980 0.00000
P 4.94397 4.95131 0.00000
P 5.01672 6.07698 0.00000
P 4.97173 7.01769 0.00000
P 5.06676 8.01608 0.00000
P 5.06007 9.07006 0.00000
P 6.01086 9.97955 0.00000
P 6.10860 1.06494 0.00000
P 5.96165 2.07714 0.00000
P 6.00000 3.00000 0.00000
P 6.07852 4.01240 0.00000
P 5.99465 4.96503 0.00000
P 6.01304 5.98393 0.00000
P 5.94747 6.97398 0.00000
P 5.99630 7.96997 0.00000
P 5.97625 8.95042 0.00000
P 7.02402 9.97210 0.00000
P 7.04110 0.95504 0.00000
P 6.94782 2.02544 0.00000
P 7.01585 2.95864 0.00000
P 6.99149 3.95379 0.00000
P 6.97984 5.02705 0.00000
P 6.98800 6.04003 0.00000
P 6.92498 7.02900 0.00000
P 6.96928 8.01514 0.00000
P 6.96751 9.01028 0.00000
P 7.99587 0.02997 0.00000
P 7.97843 1.00210 0.00000
P 7.96536 1.94397 0.00000
P 7.97769 2.98837 0.00000
P 8.03264 4.04826 0.00000
P 7.96610 4.99168 0.00000
P 8.07490 5.91773 0.00000
P 7.95860 6.94416 0.00000
P 7.99507 8.03654 0.00000
P 7.98845 9.07251 0.00000
P 8.95660 0.03202 0.00000
P 8.94826 1.04876 0.00000
P 8.98350 1.99455 0.00000
P 9.00733 2.99921 0.00000
P 9.00768 3.95907 0.00000
P 8.95394 5.02644 0.00000
P 9.01708 6.08959 0.00000
P 8.97839 7.04254 0.00000
P 9.03921 8.05417 0.00000
P 8.95121 9.00599 0.00000
100
Particle positions in xyz format
P 0.05651 9.98051 0.00000
P 9.99041 0.98786 0.00000
P 0.01215 2.00375 0.00000
P 9.96145 2.99028 0.00000
P 9.98214 4.01665 0.00000
P 9.95795 4.99071 0.00000
P 9.99765 5.96442 0.00000
P 9.96319 7.01288 0.00000
P 0.01541 8.07434 0.00000
P 0.01898 8.99302 0.00000
P 1.04921 0.02685 0.00000
P 1.00973 0.97164 0.00000
P 0.98271 1.97495 0.00000
P 0.90873 2.93735 0.00000
P 0.99819 3.91209 0.00000
P 1.05681 4.94171 0.00000
P 0.93880 6.03961 0.00000
P 1.03658 7.04749 0.00000
P 1.03637 8.03439 0.00000
P 1.01241 9.00808 0.00000
P 2.04341 9.93206 0.00000
P 2.01157 0.96244 0.00000
P 2.00168 1.95409 0.00000
P 2.02584 3.06664 0.00000
P 1.95307 4.00970 0.00000
P 1.97670 5.00555 0.00000
P 1.94987 6.01050 0.00000
P 1.94990 6.98117 0.00000
P 2.00554 7.96751 0.00000
P 2.04363 8.96604 0.00000
P 3.03562 0.02261 0.00000
P 2.95199 1.01492 0.00000
P 3.07905 2.03933 0.00000
P 2.99396 2.97529 0.00000
P 3.00150 3.99012 0.00000
P 2.93529 4.98887 0.00000
P 3.04469 5.97580 0.00000
P 2.99264 7.02494 0.00000
P 3.02535 8.02939 0.00000
P 3.01635 8.99201 0.00000
P 4.03842 0.01284 0.00000
P 3.97350 1.03177 0.00000
P 4.02905 2.02131 0.00000
P 3.93567 3.01938 0.00000
P 3.98624 3.95973 0.00000
P 3.92607 4.98232 0.00000
P 4.05117 6.05121 0.00000
P 3.96012 6.99798 0.00000
P 4.02314 7.94964 0.00000
P 4.02090 8.90773 0.00000
P 4.96351 9.99243 0.00000
P 5.03499 0.91965 0.00000
P 5.03011 1.93183 0.00000
P 4.98518 2.95755 0.00000
P 4.95806 3.95783 0.00000
P 4.98845 4.91384 0.00000
P 5.01672 6.07698 0.00000
P 4.96702 7.03669 0.00000
P 5.03048 8.08397 0.00000
P 5.06007 9.07006 0.00000
P 6.01086 9.97955 0.00000
P 6.10860 1.06494 0.00000
P 5.96165 2.07714 0.00000
P 6.00000 3.00000 0.00000
P 6.07852 4.01240 0.00000
P 6.02113 4.95952 0.00000
P 6.01304 5.98393 0.00000
P 5.94747 6.97398 0.00000
P 5.99630 7.96997 0.00000
P 5.97930 8.93738 0.00000
P 7.01062 0.00791 0.00000
P 7.04110 0.95504 0.00000
P 6.94782 2.02544 0.00000
P 7.01585 2.95864 0.00000
P 6.99149 3.95379 0.00000
P 6.97984 5.02705 0.00000
P 7.02551 6.07621 0.00000
P 6.92498 7.02900 0.00000
P 6.96928 8.01514 0.00000
P 6.96751 9.01028 0.00000
P 7.94976 0.04005 0.00000
P 7.97843 1.00210 0.00000
P 7.99700 1.98583 0.00000
P 7.97769 2.98837 0.00000
P 7.98923 4.07236 0.00000
P 7.97718 4.99661 0.00000
P 8.07490 5.91773 0.00000
P 7.97284 6.95836 0.00000
P 7.99507 8.03654 0.00000
P 7.98845 9.07251 0.00000
P 8.91357 0.02530 0.00000
P 8.91774 1.00179 0.00000
P 9.00048 1.99811 0.00000
P 9.00733 2.99921 0.00000
P 9.00768 3.95907 0.00000
P 8.95394 5.02644 0.00000
P 8.96728 6.05358 0.00000
P 8.98987 7.01223 0.00000
P 9.03921 8.05417 0.00000
P 8.95121 9.00599 0.00000
100
Particle positions in xyz format
P 0.05651 9.98051 0.00000
P 9.99041 0.98786 0.00000
P 0.01215 2.00375 0.00000
P 9.97414 3.00603 0.00000
P 9.99395 3.99939 0.00000
P 9.97641 4.98192 0.00000
P 9.99765 5.96442 0.00000
P 9.96319 7.01288 0.00000
P 0.01541 8.07434 0.00000
P 0.01898 8.99302 0.00000
P 1.08141 0.01969 0.00000
P 1.05234 0.99979 0.00000
P 0.98271 1.97495 0.00000
P 0.90873 2.93735 0.00000
P 0.99819 3.91209 0.00000
P 0.97637 4.98464 0.00000
P 0.96855 5.99954 0.00000
P 1.01000 7.07534 0.00000
P 1.04508 8.02856 0.00000
P 1.01241 9.00808 0.00000
P 2.04341 9.93206 0.00000
P 2.01157 0.96244 0.00000
P 2.00168 1.95409 0.00000
P 2.01119 3.07079 0.00000
P 1.95307 4.00970 0.00000
P 1.97796 5.00020 0.00000
P 1.95665 6.00631 0.00000
P 1.94990 6.98117 0.00000
P 2.00554 7.96751 0.00000
P 2.01534 8.99117 0.00000
P 3.03111 0.01518 0.00000
P 2.99208 1.02638 0.00000
P 3.10859 1.99794 0.00000
P 2.99396 2.97529 0.00000
P 2.96251 3.96753 0.00000
P 2.96641 5.02370 0.00000
P 3.04469 5.97580 0.00000
P 2.95829 7.02873 0.00000
P 3.02535 8.02939 0.00000
P 3.02573 9.05128 0.00000
P 4.03842 0.01284 0.00000
P 3.97350 1.03177 0.00000
P 4.02905 2.02131 0.00000
P 3.93567 3.01938 0.00000
P 3.95130 3.96516 0.00000
P 3.92342 4.97624 0.00000
P 4.05117 6.05121 0.00000
P 3.96012 6.99798 0.00000
P 4.02296 7.92311 0.00000
P 4.02643 8.94408 0.00000
P 4.97747 9.96813 0.00000
P 5.03499 0.91965 0.00000
P 5.03109 1.92322 0.00000
P 4.98518 2.95755 0.00000
P 4.95806 3.95783 0.00000
P 4.98845 4.91384 0.00000
P 5.01672 6.07698 0.00000
P 4.96702 7.03669 0.00000
P 5.03048 8.08397 0.00000
P 5.06007 9.07006 0.00000
P 6.01086 9.97955 0.00000
P 6.09194 1.10044 0.00000
P 5.96165 2.07714 0.00000
P 5.97714 3.04594 0.00000
P 6.07852 4.01240 0.00000
P 6.02113 4.95952 0.00000
P 6.01304 5.98393 0.00000
P 5.94747 6.97398 0.00000
P 5.99630 7.96997 0.00000
P 5.97930 8.93738 0.00000
P 7.01062 0.00791 0.00000
P 7.04110 0.95504 0.00000
P 6.94782 2.02544 0.00000
P 7.01585 2.95864 0.00000
P 6.99149 3.95379 0.00000
P 6.97984 5.02705 0.00000
P 7.04196 6.06087 0.00000
P 6.93859 7.07334 0.00000
P 6.96928 8.01514 0.00000
P 6.96751 9.01028 0.00000
P 7.96210 0.03427 0.00000
P 7.97843 1.00210 0.00000
P 7.99700 1.98583 0.00000
P 7.96758 3.03134 0.00000
P 7.97693 4.03223 0.00000
P 7.97718 4.99661 0.00000
P 8.07490 5.91773 0.00000
P 7.98499 6.94628 0.00000
P 7.99507 8.03654 0.00000
P 7.98845 9.07251 0.00000
P 8.91357 0.02530 0.00000
P 8.91774 1.00179 0.00000
P 9.00048 1.99811 0.00000
P 9.00733 2.99921 0.00000
P 9.00768 3.95907 0.00000
P 8.95338 4.98371 0.00000
P 8.96728 6.05358 0.00000
P 8.98987 7.01223 0.00000
P 9.03921 8.05417 0.00000
P 8.95121 9.00599 0.00000
